@<TRIPOS>MOLECULE
*****
 6 5 0 0 0
SMALL
GASTEIGER

@<TRIPOS>ATOM
      1 O           0.7491    0.1077    0.0022 O.3     1  UNL1       -0.3982
      2 C          -0.6670   -0.0110   -0.0007 C.3     1  UNL1        0.0330
      3 H          -1.0174   -0.5388    0.8986 H       1  UNL1        0.0521
      4 H          -1.0166   -0.5225   -0.9099 H       1  UNL1        0.0521
      5 H          -1.1326    0.9867    0.0083 H       1  UNL1        0.0521
      6 H           0.9879    0.9321   -0.4505 H       1  UNL1        0.2090
@<TRIPOS>BOND
     1     4     2    1
     2     6     1    1
     3     2     1    1
     4     2     5    1
     5     2     3    1
